Version 4
SHEET 1 2020 708
WIRE 656 -528 544 -528
WIRE 768 -528 736 -528
WIRE 1008 -528 848 -528
WIRE 1072 -528 1008 -528
WIRE 1232 -528 1072 -528
WIRE 1552 -528 1232 -528
WIRE 1648 -528 1552 -528
WIRE 1808 -528 1728 -528
WIRE 544 -496 544 -528
WIRE 1072 -496 1072 -528
WIRE 1232 -496 1232 -528
WIRE 1552 -496 1552 -528
WIRE 1808 -464 1808 -528
WIRE 1552 -416 1552 -432
WIRE 544 -384 544 -416
WIRE 1232 -304 1232 -432
WIRE 1328 -304 1232 -304
WIRE 1552 -304 1552 -336
WIRE 1552 -304 1408 -304
WIRE 1808 -304 1808 -384
WIRE 1808 -304 1552 -304
WIRE 1072 -208 1072 -432
WIRE 1328 -208 1072 -208
WIRE 1552 -208 1552 -304
WIRE 1552 -208 1408 -208
WIRE 384 -144 368 -144
WIRE 256 -128 -432 -128
WIRE 368 -128 368 -144
WIRE 832 -128 784 -128
WIRE 944 -128 896 -128
WIRE 1072 -80 1072 -208
WIRE 96 -48 80 -48
WIRE 368 -32 368 -48
WIRE 368 -32 320 -32
WIRE 448 -32 368 -32
WIRE 784 -32 784 -128
WIRE 784 -32 624 -32
WIRE 816 -32 784 -32
WIRE 944 -32 944 -128
WIRE 944 -32 896 -32
WIRE 960 -32 944 -32
WIRE 992 -32 960 -32
WIRE 80 -16 80 -48
WIRE 368 -16 368 -32
WIRE 448 -16 448 -32
WIRE 944 16 944 -32
WIRE -48 80 -272 80
WIRE 320 80 320 -32
WIRE 320 80 208 80
WIRE 368 80 368 64
WIRE 448 80 448 48
WIRE 448 80 368 80
WIRE 368 96 368 80
WIRE 944 112 944 96
WIRE 1072 112 1072 16
WIRE 1072 112 944 112
WIRE -64 144 -208 144
WIRE -48 144 -64 144
WIRE 624 144 624 -32
WIRE 624 144 208 144
WIRE 1072 144 1072 112
WIRE -64 208 -64 144
WIRE -48 208 -64 208
WIRE 624 208 208 208
WIRE -432 224 -432 -128
WIRE -48 272 -384 272
WIRE 304 272 208 272
WIRE 304 288 304 272
WIRE 832 288 784 288
WIRE 944 288 896 288
WIRE 1232 288 1232 -304
WIRE 1232 288 1072 288
WIRE -272 320 -272 80
WIRE -208 320 -208 144
WIRE -48 336 -64 336
WIRE 256 336 256 -128
WIRE 256 336 208 336
WIRE 1072 336 1072 288
WIRE 624 384 624 208
WIRE 784 384 784 288
WIRE 784 384 624 384
WIRE 816 384 784 384
WIRE 944 384 944 288
WIRE 944 384 896 384
WIRE 960 384 944 384
WIRE 992 384 960 384
WIRE -64 400 -64 336
WIRE -48 400 -64 400
WIRE 256 400 208 400
WIRE 256 432 256 400
WIRE 944 432 944 384
WIRE -432 528 -432 304
WIRE -272 528 -272 400
WIRE -272 528 -432 528
WIRE -208 528 -208 384
WIRE -208 528 -272 528
WIRE 80 528 80 496
WIRE 80 528 -208 528
WIRE 256 528 256 496
WIRE 256 528 80 528
WIRE 944 528 944 512
WIRE 1072 528 1072 432
WIRE 1072 528 944 528
WIRE 80 560 80 528
WIRE 1072 560 1072 528
FLAG 368 -144 +24v
FLAG 368 96 0
FLAG 80 560 0
FLAG 80 -48 +24v
FLAG 1072 144 0
FLAG 1072 560 0
FLAG 544 -384 0
FLAG 1008 -528 +24v
FLAG 960 384 G2
FLAG 960 -32 G1
SYMBOL ValVol\\SG3525A 80 240 R0
SYMATTR InstName U1
SYMBOL res 352 -144 R0
SYMATTR InstName R1
SYMATTR Value 820
SYMATTR SpiceLine tol=5 pwr=0.25
SYMBOL res 352 -32 R0
SYMATTR InstName R2
SYMATTR Value 2k
SYMATTR SpiceLine tol=5 pwr=0.25
SYMBOL cap 464 48 R180
WINDOW 0 24 56 Left 2
WINDOW 3 -59 12 Left 2
SYMATTR InstName C1
SYMATTR Value 470nF
SYMBOL res -256 416 R180
WINDOW 0 36 76 Left 2
WINDOW 3 36 40 Left 2
SYMATTR InstName R3
SYMATTR Value 1k2
SYMATTR SpiceLine tol=5 pwr=0.25
SYMBOL cap -224 320 R0
SYMATTR InstName C2
SYMATTR Value 10nF
SYMBOL res 912 -48 R90
WINDOW 0 0 56 VBottom 2
WINDOW 3 32 56 VTop 2
SYMATTR InstName R6
SYMATTR Value 22
SYMATTR SpiceLine tol=5 pwr=0.25
SYMBOL res 960 112 R180
WINDOW 0 36 76 Left 2
WINDOW 3 36 40 Left 2
SYMATTR InstName R7
SYMATTR Value 10k
SYMATTR SpiceLine tol=5 pwr=0.25
SYMBOL diode 896 -144 R90
WINDOW 0 0 32 VBottom 2
WINDOW 3 32 32 VTop 2
SYMATTR InstName D1
SYMATTR Value 1N4148
SYMBOL EXTRA\\IRF\\NMOSFET\\irf540 1040 -32 R0
SYMATTR InstName U2
SYMBOL res 912 368 R90
WINDOW 0 0 56 VBottom 2
WINDOW 3 32 56 VTop 2
SYMATTR InstName R8
SYMATTR Value 22
SYMATTR SpiceLine tol=5 pwr=0.25
SYMBOL res 960 528 R180
WINDOW 0 36 76 Left 2
WINDOW 3 36 40 Left 2
SYMATTR InstName R9
SYMATTR Value 10k
SYMATTR SpiceLine tol=5 pwr=0.25
SYMBOL EXTRA\\IRF\\NMOSFET\\irf540 1040 384 R0
SYMATTR InstName U3
SYMBOL cap 1536 -496 R0
SYMATTR InstName C3
SYMATTR Value 940µ
SYMBOL res 1792 -480 R0
SYMATTR InstName R10
SYMATTR Value 1
SYMBOL ind 1424 -320 R90
WINDOW 0 5 56 VBottom 2
WINDOW 3 32 56 VTop 2
SYMATTR InstName L1
SYMATTR Value 27µ
SYMBOL ind 1424 -224 R90
WINDOW 0 5 56 VBottom 2
WINDOW 3 32 56 VTop 2
SYMATTR InstName L2
SYMATTR Value 27µ
SYMBOL voltage 544 -512 R0
WINDOW 123 0 0 Left 0
WINDOW 39 0 0 Left 0
SYMATTR InstName V1
SYMATTR Value 24
SYMBOL Pot&Sw\\pot -448 208 R0
SYMATTR InstName U4
SYMATTR Value Rt=10K set=0.625
SYMBOL diode 896 272 R90
WINDOW 0 0 32 VBottom 2
WINDOW 3 32 32 VTop 2
SYMATTR InstName D5
SYMATTR Value 1N4148
SYMBOL diode 1088 -432 R180
WINDOW 0 24 64 Left 2
WINDOW 3 24 0 Left 2
SYMATTR InstName D2
SYMATTR Value MUR460
SYMBOL diode 1248 -432 R180
WINDOW 0 24 64 Left 2
WINDOW 3 24 0 Left 2
SYMATTR InstName D3
SYMATTR Value MUR460
SYMBOL cap 240 432 R0
SYMATTR InstName C4
SYMATTR Value 47nF
SYMBOL res 1536 -432 R0
SYMATTR InstName R4
SYMATTR Value 40m
SYMBOL ind 864 -512 M270
WINDOW 0 32 56 VTop 2
WINDOW 3 5 56 VBottom 2
SYMATTR InstName L3
SYMATTR Value 10n
SYMBOL res 640 -544 M90
WINDOW 0 0 56 VBottom 2
WINDOW 3 32 56 VTop 2
SYMATTR InstName R5
SYMATTR Value 10m
SYMBOL ind 1744 -512 M270
WINDOW 0 32 56 VTop 2
WINDOW 3 5 56 VBottom 2
SYMATTR InstName L4
SYMATTR Value 1n
TEXT -448 584 Left 2 !.tran 0 3m 0 1e-8 startup
