Version 4
SHEET 1 2020 708
WIRE 720 -448 672 -448
WIRE 832 -448 800 -448
WIRE 944 -448 912 -448
WIRE 992 -448 944 -448
WIRE 1312 -448 992 -448
WIRE 1472 -448 1312 -448
WIRE 1792 -448 1472 -448
WIRE 1952 -448 1792 -448
WIRE 672 -416 672 -448
WIRE 1312 -416 1312 -448
WIRE 1472 -416 1472 -448
WIRE 1792 -416 1792 -448
WIRE 1952 -416 1952 -448
WIRE 944 -400 944 -448
WIRE 672 -304 672 -336
WIRE 944 -304 944 -336
WIRE 1472 -288 1472 -352
WIRE 1568 -288 1472 -288
WIRE 1792 -288 1792 -352
WIRE 1792 -288 1648 -288
WIRE 1952 -288 1952 -336
WIRE 1952 -288 1792 -288
WIRE 1312 -192 1312 -352
WIRE 1568 -192 1312 -192
WIRE 1792 -192 1792 -288
WIRE 1792 -192 1648 -192
WIRE 384 -144 368 -144
WIRE 256 -128 -432 -128
WIRE 368 -128 368 -144
WIRE 1072 -128 1024 -128
WIRE 1184 -128 1136 -128
WIRE 1312 -80 1312 -192
WIRE 96 -48 80 -48
WIRE 368 -32 368 -48
WIRE 368 -32 320 -32
WIRE 448 -32 368 -32
WIRE 1024 -32 1024 -128
WIRE 1024 -32 624 -32
WIRE 1056 -32 1024 -32
WIRE 1184 -32 1184 -128
WIRE 1184 -32 1136 -32
WIRE 1200 -32 1184 -32
WIRE 1232 -32 1200 -32
WIRE 80 -16 80 -48
WIRE 368 -16 368 -32
WIRE 448 -16 448 -32
WIRE 1184 16 1184 -32
WIRE -48 80 -272 80
WIRE 320 80 320 -32
WIRE 320 80 208 80
WIRE 368 80 368 64
WIRE 448 80 448 48
WIRE 448 80 368 80
WIRE 368 96 368 80
WIRE 1184 112 1184 96
WIRE 1312 112 1312 16
WIRE 1312 112 1184 112
WIRE -64 144 -208 144
WIRE -48 144 -64 144
WIRE 624 144 624 -32
WIRE 624 144 208 144
WIRE 1312 144 1312 112
WIRE -64 208 -64 144
WIRE -48 208 -64 208
WIRE 624 208 208 208
WIRE -432 224 -432 -128
WIRE -48 272 -384 272
WIRE 304 272 208 272
WIRE 304 288 304 272
WIRE 1072 288 1024 288
WIRE 1184 288 1136 288
WIRE 1472 288 1472 -288
WIRE 1472 288 1312 288
WIRE -272 320 -272 80
WIRE -208 320 -208 144
WIRE -48 336 -64 336
WIRE 256 336 256 -128
WIRE 256 336 208 336
WIRE 1312 336 1312 288
WIRE 624 384 624 208
WIRE 1024 384 1024 288
WIRE 1024 384 624 384
WIRE 1056 384 1024 384
WIRE 1184 384 1184 288
WIRE 1184 384 1136 384
WIRE 1200 384 1184 384
WIRE 1232 384 1200 384
WIRE -64 400 -64 336
WIRE -48 400 -64 400
WIRE 1184 432 1184 384
WIRE -432 528 -432 304
WIRE -272 528 -272 400
WIRE -272 528 -432 528
WIRE -208 528 -208 384
WIRE -208 528 -272 528
WIRE 80 528 80 496
WIRE 80 528 -208 528
WIRE 1184 528 1184 512
WIRE 1312 528 1312 432
WIRE 1312 528 1184 528
WIRE 80 560 80 528
WIRE 1312 560 1312 528
FLAG 368 -144 +24v
FLAG 368 96 0
FLAG 80 560 0
FLAG 80 -48 +24v
FLAG 1312 144 0
FLAG 1312 560 0
FLAG 672 -304 0
FLAG 672 -448 +24v
FLAG 1200 384 G2
FLAG 1200 -32 G1
FLAG 944 -304 0
FLAG 992 -448 Vsource
SYMBOL ValVol\\SG3525A 80 240 R0
SYMATTR InstName U1
SYMBOL res 352 -144 R0
SYMATTR InstName R1
SYMATTR Value 1k
SYMATTR SpiceLine tol=5 pwr=0.25
SYMBOL res 352 -32 R0
SYMATTR InstName R2
SYMATTR Value 2k
SYMATTR SpiceLine tol=5 pwr=0.25
SYMBOL cap 432 -16 R0
SYMATTR InstName C1
SYMATTR Value 470n
SYMBOL res -256 416 R180
WINDOW 0 36 76 Left 2
WINDOW 3 36 40 Left 2
SYMATTR InstName R3
SYMATTR Value 1k2
SYMATTR SpiceLine tol=5 pwr=0.25
SYMBOL cap -224 320 R0
SYMATTR InstName C2
SYMATTR Value 10nF
SYMBOL res 1152 -48 R90
WINDOW 0 0 56 VBottom 2
WINDOW 3 32 56 VTop 2
SYMATTR InstName R6
SYMATTR Value 22
SYMATTR SpiceLine tol=5 pwr=0.25
SYMBOL res 1200 112 R180
WINDOW 0 36 76 Left 2
WINDOW 3 36 40 Left 2
SYMATTR InstName R7
SYMATTR Value 10k
SYMATTR SpiceLine tol=5 pwr=0.25
SYMBOL diode 1136 -144 R90
WINDOW 0 0 32 VBottom 2
WINDOW 3 32 32 VTop 2
SYMATTR InstName D1
SYMATTR Value 1N4148
SYMBOL EXTRA\\IRF\\NMOSFET\\irf540 1280 -32 R0
SYMATTR InstName U2
SYMBOL res 1152 368 R90
WINDOW 0 0 56 VBottom 2
WINDOW 3 32 56 VTop 2
SYMATTR InstName R8
SYMATTR Value 22
SYMATTR SpiceLine tol=5 pwr=0.25
SYMBOL res 1200 528 R180
WINDOW 0 36 76 Left 2
WINDOW 3 36 40 Left 2
SYMATTR InstName R9
SYMATTR Value 10k
SYMATTR SpiceLine tol=5 pwr=0.25
SYMBOL EXTRA\\IRF\\NMOSFET\\irf540 1280 384 R0
SYMATTR InstName U3
SYMBOL cap 1776 -416 R0
SYMATTR InstName C3
SYMATTR Value 50µ
SYMATTR SpiceLine Rser=0.03
SYMBOL res 1936 -432 R0
SYMATTR InstName R10
SYMATTR Value 1
SYMBOL ind 1552 -272 R270
WINDOW 0 32 56 VTop 2
WINDOW 3 5 56 VBottom 2
SYMATTR InstName L1
SYMATTR Value 27µ
SYMBOL ind 1552 -176 R270
WINDOW 0 32 56 VTop 2
WINDOW 3 5 56 VBottom 2
SYMATTR InstName L2
SYMATTR Value 27µ
SYMBOL voltage 672 -432 R0
WINDOW 123 0 0 Left 0
WINDOW 39 0 0 Left 0
SYMATTR InstName V1
SYMATTR Value 24
SYMBOL Pot&Sw\\pot -448 208 R0
SYMATTR InstName U4
SYMATTR Value Rt=10K set=0.625
SYMBOL diode 1136 272 R90
WINDOW 0 0 32 VBottom 2
WINDOW 3 32 32 VTop 2
SYMATTR InstName D5
SYMATTR Value 1N4148
SYMBOL diode 1328 -352 R180
WINDOW 0 24 64 Left 2
WINDOW 3 24 0 Left 2
SYMATTR InstName D2
SYMATTR Value MUR460
SYMBOL diode 1488 -352 R180
WINDOW 0 24 64 Left 2
WINDOW 3 24 0 Left 2
SYMATTR InstName D3
SYMATTR Value MUR460
SYMBOL ind 816 -432 R270
WINDOW 0 32 56 VTop 2
WINDOW 3 5 56 VBottom 2
SYMATTR InstName L3
SYMATTR Value 100nH
SYMBOL cap 928 -400 R0
SYMATTR InstName C4
SYMATTR Value 1µ
SYMBOL res 704 -432 R270
WINDOW 0 32 56 VTop 2
WINDOW 3 0 56 VBottom 2
SYMATTR InstName R4
SYMATTR Value 10m
TEXT -448 584 Left 2 !.tran 0 2m 0 2e-8 startup
